 &time_control
 run_days                            = 0,
 run_hours                           = 0,
 /

